
This file of echoed input was generated by AeroDyn on 30-Nov-2020 at 07:49:45.

Data from AeroDyn primary input file "./input.dat":


               FTitle         - File Header: File Description (line 2)
  "Description line that will be printed in the output file and written to the screen."

            T  Echo           - Echo flag
               DTAero         - Time interval for aerodynamic calculations {or default} (s)
  "default"
            1  WakeMod        - Type of wake/induction model {0=none, 1=BEMT, 2=DBEMT} (-)
            1  AFAeroMod      - Type of airfoil aerodynamics model {1=steady model, 2=Beddoes-Leishman unsteady model} (-)
            0  TwrPotent      - Type tower influence on wind based on potential flow around the tower {0=none, 1=baseline potential flow, 2=potential flow with Bak correction} (-)
            F  TwrShadow      - Calculate tower influence on wind based on downstream tower shadow? (flag)
            F  TwrAero        - Calculate tower aerodynamic loads? (flag)
            F  FrozenWake     - Assume frozen wake during linearization? (flag)
            F  CavitCheck     - Perform cavitation check? (flag)

   1.2460E+00  AirDens        - Air density (kg/m^3)
   1.4639E-05  KinVisc        - Kinematic air viscosity (m^2/s)
   3.3330E+02  SpdSound       - Speed of sound (m/s)
   1.0132E+05  Patm           - Atmospheric pressure (Pa)
   2.0000E+03  Pvap           - Vapour pressure of fluid (Pa)
   6.0000E-01  FluidDepth     - Water depth above mid-hub height (MHK only, for cavitation check) (m)

            1  SkewMod        - Type of skewed-wake correction model {1=uncoupled, 2=Pitt/Peters, 3=coupled} (-) [unused when WakeMod=0]
               SkewModFactor  - Constant used in Pitt/Peters skewed wake model {or default} (-)
  "default"
            F  TipLoss        - Use the Prandtl tip-loss model? (flag) [unused when WakeMod=0]
            F  HubLoss        - Use the Prandtl hub-loss model? (flag) [unused when WakeMod=0]
            T  TanInd         - Include tangential induction in BEMT calculations? (flag) [unused when WakeMod=0]
            T  AIDrag         - Include the drag term in the axial-induction calculation? (flag) [unused when WakeMod=0]
            T  TIDrag         - Include the drag term in the tangential-induction calculation? (flag) [unused when WakeMod=0 or TanInd=FALSE]
               IndToler       - Convergence tolerance for BEM induction factors (-) [unused when WakeMod=0]
  "1E-05"
   1.0000E+02  MaxIter        - Maximum number of iteration steps (-) [unused when WakeMod=0]

            2  DBEMT_Mod      - Type of dynamic BEMT (DBEMT) model {0=none, 1=constant tau1, 2=time-dependent tau1} (-) [used only when WakeMod=2]
   4.0000E+00  tau1_const     - time constant for DBEMT (s) [used only when WakeMod=2 and DBEMT_Mod=1]

            1  UAMod          - Unsteady Aero Model Switch (switch) {1=Baseline model (Original), 2=Gonzalez's variant (changes in Cn,Cc,Cm), 3=Minemma/Pierce variant (changes in Cc and Cm)} [used only when AFAreoMod=2] (-)
            F  FLookup        - Flag to indicate whether a lookup for f' will be calculated (TRUE) or whether best-fit exponential equations will be used (FALSE); if FALSE S1-S4 must be provided in airfoil input files [used only when AFAreoMod=2] (flag)

            2  AFTabMod       - Interpolation method for multiple airfoil tables (-)
   1.0000E+00  InCol_Alfa     - The column in the airfoil tables that contains the angle of attack (-)
   2.0000E+00  InCol_Cl       - The column in the airfoil tables that contains the lift coefficient (-)
   3.0000E+00  InCol_Cd       - The column in the airfoil tables that contains the drag coefficient (-)
   4.0000E+00  InCol_Cm       - The column in the airfoil tables that contains the pitching-moment coefficient; use zero if there is no Cm column (-)
   0.0000E+00  InCol_Cpmin    - The column in the airfoil tables that contains the drag coefficient; use zero if there is no Cpmin column (-)
            6  NumAFfiles     - Number of airfoil files used (-)
               AFNames(1)     - Airfoil 1 file name
  "AeroData/Cylinder.dat"
               AFNames(2)     - Airfoil 2 file name
  "AeroData/FFA_W3_600.dat"
               AFNames(3)     - Airfoil 3 file name
  "AeroData/FFA_W3_480.dat"
               AFNames(4)     - Airfoil 4 file name
  "AeroData/FFA_W3_360.dat"
               AFNames(5)     - Airfoil 5 file name
  "AeroData/FFA_W3_301.dat"
               AFNames(6)     - Airfoil 6 file name
  "AeroData/FFA_W3_241.dat"

            T  UseBlCm        - Include aerodynamic pitching moment in calculations? (flag)
               ADBlFile(1)    - Name of file containing distributed aerodynamic properties for blade 1
  "blade.dat"
               ADBlFile(2)    - Name of file containing distributed aerodynamic properties for blade 2
  "blade.dat"
               ADBlFile(3)    - Name of file containing distributed aerodynamic properties for blade 3
  "blade.dat"

            5  NumTwrNds      - Number of tower nodes used in the analysis (-)


               TwrNds         - Properties for tower node 1.
   0.0000E+00   6.0000E+00   0.0000E+00
               TwrNds         - Properties for tower node 2.
   2.0000E+01   5.5000E+00   0.0000E+00
               TwrNds         - Properties for tower node 3.
   4.0000E+01   5.0000E+00   0.0000E+00
               TwrNds         - Properties for tower node 4.
   6.0000E+01   4.5000E+00   0.0000E+00
               TwrNds         - Properties for tower node 5.
   8.0000E+01   4.0000E+00   0.0000E+00

            T  SumPrint       - Generate a summary file listing input options and interpolated properties to <rootname>.AD.sum? (flag)
            9  NBlOuts        - Number of blade node outputs [0 - 9] (-)
               BlOutNd        - Blade nodes whose values will be output (-)
            1            2            3            5            4            5            6            7            8
            0  NTwOuts        - Number of tower node outputs [0 - 9] (-)
               TwOutNd        - Tower nodes whose values will be output (-)


               OutList        - List of user-requested output channels
  "RtAeroCp, RtAeroCq, RtAeroCt"
               OutList        - List of user-requested output channels
  "END"



           37  NumBlNds       - Number of blade nodes used in the analysis (-)


   0.0000    0.0000    0.0000    0.0000   14.4911    5.3800         1
   4.8000    0.0000    0.0000    0.0000   14.4911    5.3800         1
   7.5120    0.0000    0.0000    0.0000   14.4242    5.4229         1
   9.1190    0.0000    0.0000    0.0000   14.2604    5.5032         1
  10.2750    0.0000    0.0000    0.0000   14.0439    5.5770         2
  11.6580    0.0000    0.0000    0.0000   13.5813    5.6789         2
  13.2580    0.0000    0.0000    0.0000   12.9088    5.8021         2
  15.0680    0.0000    0.0000    0.0000   11.9090    5.9370         2
  17.0750    0.0000    0.0000    0.0000   10.6804    6.0637         3
  19.2670    0.0000    0.0000    0.0000    9.4796    6.1571         3
  21.6330    0.0000    0.0000    0.0000    8.3851    6.2013         4
  24.1560    0.0000    0.0000    0.0000    7.6069    6.1919         4
  26.8230    0.0000    0.0000    0.0000    6.9580    6.1290         4
  29.6170    0.0000    0.0000    0.0000    6.3692    6.0139         5
  32.5210    0.0000    0.0000    0.0000    5.8091    5.8542         5
  35.5190    0.0000    0.0000    0.0000    5.2548    5.6580         5
  38.5910    0.0000    0.0000    0.0000    4.6912    5.4348         5
  41.7200    0.0000    0.0000    0.0000    4.0879    5.1901         6
  44.8860    0.0000    0.0000    0.0000    3.4454    4.9294         6
  48.0720    0.0000    0.0000    0.0000    2.7903    4.6584         6
  51.2570    0.0000    0.0000    0.0000    2.1251    4.3835         6
  54.4230    0.0000    0.0000    0.0000    1.4817    4.1109         6
  57.5500    0.0000    0.0000    0.0000    0.8683    3.8449         6
  60.6200    0.0000    0.0000    0.0000    0.2947    3.5887         6
  63.6150    0.0000    0.0000    0.0000   -0.2212    3.3446         6
  66.5160    0.0000    0.0000    0.0000   -0.7048    3.1153         6
  69.3060    0.0000    0.0000    0.0000   -1.1205    2.9028         6
  71.9680    0.0000    0.0000    0.0000   -1.5171    2.7075         6
  74.4870    0.0000    0.0000    0.0000   -1.8760    2.5292         6
  76.8470    0.0000    0.0000    0.0000   -2.2105    2.3650         6
  79.0340    0.0000    0.0000    0.0000   -2.5204    2.2001         6
  81.0340    0.0000    0.0000    0.0000   -2.7980    2.0182         6
  82.8370    0.0000    0.0000    0.0000   -3.0328    1.8119         6
  84.4310    0.0000    0.0000    0.0000   -3.2210    1.5363         6
  85.8060    0.0000    0.0000    0.0000   -3.3696    1.1384         6
  86.9550    0.0000    0.0000    0.0000   -3.4280    1.1384         6
  87.8700    0.0000    0.0000    0.0000   -3.4280    1.1384         6



           37  NumBlNds       - Number of blade nodes used in the analysis (-)


   0.0000    0.0000    0.0000    0.0000   14.4911    5.3800         1
   4.8000    0.0000    0.0000    0.0000   14.4911    5.3800         1
   7.5120    0.0000    0.0000    0.0000   14.4242    5.4229         1
   9.1190    0.0000    0.0000    0.0000   14.2604    5.5032         1
  10.2750    0.0000    0.0000    0.0000   14.0439    5.5770         2
  11.6580    0.0000    0.0000    0.0000   13.5813    5.6789         2
  13.2580    0.0000    0.0000    0.0000   12.9088    5.8021         2
  15.0680    0.0000    0.0000    0.0000   11.9090    5.9370         2
  17.0750    0.0000    0.0000    0.0000   10.6804    6.0637         3
  19.2670    0.0000    0.0000    0.0000    9.4796    6.1571         3
  21.6330    0.0000    0.0000    0.0000    8.3851    6.2013         4
  24.1560    0.0000    0.0000    0.0000    7.6069    6.1919         4
  26.8230    0.0000    0.0000    0.0000    6.9580    6.1290         4
  29.6170    0.0000    0.0000    0.0000    6.3692    6.0139         5
  32.5210    0.0000    0.0000    0.0000    5.8091    5.8542         5
  35.5190    0.0000    0.0000    0.0000    5.2548    5.6580         5
  38.5910    0.0000    0.0000    0.0000    4.6912    5.4348         5
  41.7200    0.0000    0.0000    0.0000    4.0879    5.1901         6
  44.8860    0.0000    0.0000    0.0000    3.4454    4.9294         6
  48.0720    0.0000    0.0000    0.0000    2.7903    4.6584         6
  51.2570    0.0000    0.0000    0.0000    2.1251    4.3835         6
  54.4230    0.0000    0.0000    0.0000    1.4817    4.1109         6
  57.5500    0.0000    0.0000    0.0000    0.8683    3.8449         6
  60.6200    0.0000    0.0000    0.0000    0.2947    3.5887         6
  63.6150    0.0000    0.0000    0.0000   -0.2212    3.3446         6
  66.5160    0.0000    0.0000    0.0000   -0.7048    3.1153         6
  69.3060    0.0000    0.0000    0.0000   -1.1205    2.9028         6
  71.9680    0.0000    0.0000    0.0000   -1.5171    2.7075         6
  74.4870    0.0000    0.0000    0.0000   -1.8760    2.5292         6
  76.8470    0.0000    0.0000    0.0000   -2.2105    2.3650         6
  79.0340    0.0000    0.0000    0.0000   -2.5204    2.2001         6
  81.0340    0.0000    0.0000    0.0000   -2.7980    2.0182         6
  82.8370    0.0000    0.0000    0.0000   -3.0328    1.8119         6
  84.4310    0.0000    0.0000    0.0000   -3.2210    1.5363         6
  85.8060    0.0000    0.0000    0.0000   -3.3696    1.1384         6
  86.9550    0.0000    0.0000    0.0000   -3.4280    1.1384         6
  87.8700    0.0000    0.0000    0.0000   -3.4280    1.1384         6



           37  NumBlNds       - Number of blade nodes used in the analysis (-)


   0.0000    0.0000    0.0000    0.0000   14.4911    5.3800         1
   4.8000    0.0000    0.0000    0.0000   14.4911    5.3800         1
   7.5120    0.0000    0.0000    0.0000   14.4242    5.4229         1
   9.1190    0.0000    0.0000    0.0000   14.2604    5.5032         1
  10.2750    0.0000    0.0000    0.0000   14.0439    5.5770         2
  11.6580    0.0000    0.0000    0.0000   13.5813    5.6789         2
  13.2580    0.0000    0.0000    0.0000   12.9088    5.8021         2
  15.0680    0.0000    0.0000    0.0000   11.9090    5.9370         2
  17.0750    0.0000    0.0000    0.0000   10.6804    6.0637         3
  19.2670    0.0000    0.0000    0.0000    9.4796    6.1571         3
  21.6330    0.0000    0.0000    0.0000    8.3851    6.2013         4
  24.1560    0.0000    0.0000    0.0000    7.6069    6.1919         4
  26.8230    0.0000    0.0000    0.0000    6.9580    6.1290         4
  29.6170    0.0000    0.0000    0.0000    6.3692    6.0139         5
  32.5210    0.0000    0.0000    0.0000    5.8091    5.8542         5
  35.5190    0.0000    0.0000    0.0000    5.2548    5.6580         5
  38.5910    0.0000    0.0000    0.0000    4.6912    5.4348         5
  41.7200    0.0000    0.0000    0.0000    4.0879    5.1901         6
  44.8860    0.0000    0.0000    0.0000    3.4454    4.9294         6
  48.0720    0.0000    0.0000    0.0000    2.7903    4.6584         6
  51.2570    0.0000    0.0000    0.0000    2.1251    4.3835         6
  54.4230    0.0000    0.0000    0.0000    1.4817    4.1109         6
  57.5500    0.0000    0.0000    0.0000    0.8683    3.8449         6
  60.6200    0.0000    0.0000    0.0000    0.2947    3.5887         6
  63.6150    0.0000    0.0000    0.0000   -0.2212    3.3446         6
  66.5160    0.0000    0.0000    0.0000   -0.7048    3.1153         6
  69.3060    0.0000    0.0000    0.0000   -1.1205    2.9028         6
  71.9680    0.0000    0.0000    0.0000   -1.5171    2.7075         6
  74.4870    0.0000    0.0000    0.0000   -1.8760    2.5292         6
  76.8470    0.0000    0.0000    0.0000   -2.2105    2.3650         6
  79.0340    0.0000    0.0000    0.0000   -2.5204    2.2001         6
  81.0340    0.0000    0.0000    0.0000   -2.7980    2.0182         6
  82.8370    0.0000    0.0000    0.0000   -3.0328    1.8119         6
  84.4310    0.0000    0.0000    0.0000   -3.2210    1.5363         6
  85.8060    0.0000    0.0000    0.0000   -3.3696    1.1384         6
  86.9550    0.0000    0.0000    0.0000   -3.4280    1.1384         6
  87.8700    0.0000    0.0000    0.0000   -3.4280    1.1384         6
--
Contents of "./AeroData/Cylinder.dat":
 DEFAULT         = InterpOrd           
 1               = NonDimArea          
 0               = NumCoords           
 1               = NumTabs             
 0.75            = Re                  
 0               = UserProp            
 true            = InclUAdata          
 0               = alpha0              
 150             = alpha1              
 -150            = alpha2              
 1               = eta_e               
 0               = C_nalpha            
 0               = T_f0                
 0               = T_f0                
 0               = T_V0                
 0               = T_V0                
 0               = T_p                 
 0               = T_p                 
 0               = T_VL                
 0               = T_VL                
 Default         = b1                  
 Default         = b2                  
 Default         = b5                  
 Default         = A1                  
 Default         = A2                  
 Default         = A5                  
 0               = S1                  
 0               = S2                  
 0               = S3                  
 0               = S4                  
 0               = Cn1                 
 0               = Cn2                 
 Default         = St_sh               
 0.3             = Cd0                 
 0               = Cm0                 
 0               = k0                  
 0               = k1                  
 0               = k2                  
 0               = k3                  
 0               = k1_hat              
 Default         = x_cp_bar            
 DEFAULT         = UACutout            
 DEFAULT         = filtCutOff          
 105             = NumAlf              
-180.00000   0.00000   0.60000   0.00000
-175.00000   0.00000   0.60000   0.00000
-170.00000   0.00000   0.60000   0.00000
-165.00000   0.00000   0.60000   0.00000
-160.00000   0.00000   0.60000   0.00000
-155.00000   0.00000   0.60000   0.00000
-150.00000   0.00000   0.60000   0.00000
-145.00000   0.00000   0.60000   0.00000
-140.00000   0.00000   0.60000   0.00000
-135.00000   0.00000   0.60000   0.00000
-130.00000   0.00000   0.60000   0.00000
-125.00000   0.00000   0.60000   0.00000
-120.00000   0.00000   0.60000   0.00000
-115.00000   0.00000   0.60000   0.00000
-110.00000   0.00000   0.60000   0.00000
-105.00000   0.00000   0.60000   0.00000
-100.00000   0.00000   0.60000   0.00000
-95.00000   0.00000   0.60000   0.00000
-90.00000   0.00000   0.60000   0.00000
-85.00000   0.00000   0.60000   0.00000
-80.00000   0.00000   0.60000   0.00000
-75.00000   0.00000   0.60000   0.00000
-70.00000   0.00000   0.60000   0.00000
-65.00000   0.00000   0.60000   0.00000
-60.00000   0.00000   0.60000   0.00000
-55.00000   0.00000   0.60000   0.00000
-50.00000   0.00000   0.60000   0.00000
-45.00000   0.00000   0.60000   0.00000
-40.00000   0.00000   0.60000   0.00000
-39.00000   0.00000   0.60000   0.00000
-38.00000   0.00000   0.60000   0.00000
-37.00000   0.00000   0.60000   0.00000
-36.00000   0.00000   0.60000   0.00000
-35.00000   0.00000   0.60000   0.00000
-34.00000   0.00000   0.60000   0.00000
-33.00000   0.00000   0.60000   0.00000
-32.00000   0.00000   0.60000   0.00000
-30.00000   0.00000   0.60000   0.00000
-28.00000   0.00000   0.60000   0.00000
-26.00000   0.00000   0.60000   0.00000
-24.00000   0.00000   0.60000   0.00000
-22.00000   0.00000   0.60000   0.00000
-20.00000   0.00000   0.60000   0.00000
-18.00000   0.00000   0.60000   0.00000
-16.00000   0.00000   0.60000   0.00000
-14.00000   0.00000   0.60000   0.00000
-12.00000   0.00000   0.60000   0.00000
-10.00000   0.00000   0.60000   0.00000
-8.00000   0.00000   0.60000   0.00000
-6.00000   0.00000   0.60000   0.00000
-4.00000   0.00000   0.60000   0.00000
-2.00000   0.00000   0.60000   0.00000
0.00000   0.00000   0.60000   0.00000
2.00000   0.00000   0.60000   0.00000
4.00000   0.00000   0.60000   0.00000
6.00000   0.00000   0.60000   0.00000
8.00000   0.00000   0.60000   0.00000
10.00000   0.00000   0.60000   0.00000
12.00000   0.00000   0.60000   0.00000
14.00000   0.00000   0.60000   0.00000
16.00000   0.00000   0.60000   0.00000
18.00000   0.00000   0.60000   0.00000
20.00000   0.00000   0.60000   0.00000
22.00000   0.00000   0.60000   0.00000
24.00000   0.00000   0.60000   0.00000
26.00000   0.00000   0.60000   0.00000
28.00000   0.00000   0.60000   0.00000
30.00000   0.00000   0.60000   0.00000
32.00000   0.00000   0.60000   0.00000
33.00000   0.00000   0.60000   0.00000
34.00000   0.00000   0.60000   0.00000
35.00000   0.00000   0.60000   0.00000
36.00000   0.00000   0.60000   0.00000
37.00000   0.00000   0.60000   0.00000
38.00000   0.00000   0.60000   0.00000
39.00000   0.00000   0.60000   0.00000
40.00000   0.00000   0.60000   0.00000
45.00000   0.00000   0.60000   0.00000
50.00000   0.00000   0.60000   0.00000
55.00000   0.00000   0.60000   0.00000
60.00000   0.00000   0.60000   0.00000
65.00000   0.00000   0.60000   0.00000
70.00000   0.00000   0.60000   0.00000
75.00000   0.00000   0.60000   0.00000
80.00000   0.00000   0.60000   0.00000
85.00000   0.00000   0.60000   0.00000
90.00000   0.00000   0.60000   0.00000
95.00000   0.00000   0.60000   0.00000
100.00000   0.00000   0.60000   0.00000
105.00000   0.00000   0.60000   0.00000
110.00000   0.00000   0.60000   0.00000
115.00000   0.00000   0.60000   0.00000
120.00000   0.00000   0.60000   0.00000
125.00000   0.00000   0.60000   0.00000
130.00000   0.00000   0.60000   0.00000
135.00000   0.00000   0.60000   0.00000
140.00000   0.00000   0.60000   0.00000
145.00000   0.00000   0.60000   0.00000
150.00000   0.00000   0.60000   0.00000
155.00000   0.00000   0.60000   0.00000
160.00000   0.00000   0.60000   0.00000
165.00000   0.00000   0.60000   0.00000
170.00000   0.00000   0.60000   0.00000
175.00000   0.00000   0.60000   0.00000
180.00000   0.00000   0.60000   0.00000
--
Contents of "./AeroData/FFA_W3_600.dat":
 DEFAULT         = InterpOrd           
 1               = NonDimArea          
 0               = NumCoords           
 1               = NumTabs             
 0.75            = Re                  
 0               = UserProp            
 true            = InclUAdata          
 -0.38           = alpha0              
 30              = alpha1              
 -30             = alpha2              
 1               = eta_e               
 7.12499         = C_nalpha            
 2               = T_f0                
 2               = T_f0                
 7               = T_V0                
 7               = T_V0                
 1.6             = T_p                 
 1.6             = T_p                 
 9               = T_VL                
 9               = T_VL                
 Default         = b1                  
 Default         = b2                  
 0.5             = b5                  
 0.5             = b5                  
 Default         = A1                  
 Default         = A2                  
 Default         = A5                  
 18.269          = S1                  
 -11.324         = S2                  
 18.269          = S3                  
 -11.324         = S4                  
 3.5             = Cn1                 
 -0.8            = Cn2                 
 Default         = St_sh               
 0.0016          = Cd0                 
 -0.0328         = Cm0                 
 0               = k0                  
 0               = k1                  
 0               = k2                  
 0               = k3                  
 0               = k1_hat              
 Default         = x_cp_bar            
 DEFAULT         = UACutout            
 DEFAULT         = filtCutOff          
 105             = NumAlf              
-1.800e+02   0.000e+00   0.000e+00   0.000e+00
-1.750e+02   1.736e-01   9.900e-03   2.180e-02
-1.700e+02   3.420e-01   3.920e-02   4.340e-02
-1.650e+02   5.000e-01   8.710e-02   6.470e-02
-1.600e+02   6.428e-01   1.521e-01   8.550e-02
-1.550e+02   7.660e-01   2.322e-01   1.057e-01
-1.500e+02   8.660e-01   3.250e-01   1.250e-01
-1.450e+02   9.397e-01   4.277e-01   1.434e-01
-1.400e+02   9.848e-01   5.371e-01   1.607e-01
-1.350e+02   1.000e+00   6.500e-01   1.768e-01
-1.300e+02   9.848e-01   7.629e-01   1.915e-01
-1.250e+02   9.397e-01   8.723e-01   2.048e-01
-1.200e+02   8.660e-01   9.750e-01   2.165e-01
-1.150e+02   7.660e-01   1.068e+00   2.266e-01
-1.100e+02   6.428e-01   1.148e+00   2.349e-01
-1.050e+02   5.000e-01   1.213e+00   2.415e-01
-1.000e+02   3.420e-01   1.261e+00   2.462e-01
-9.500e+01   1.736e-01   1.290e+00   2.490e-01
-9.000e+01   0.000e+00   1.300e+00   2.500e-01
-8.500e+01  -1.736e-01   1.290e+00   2.490e-01
-8.000e+01  -3.420e-01   1.261e+00   2.462e-01
-7.500e+01  -5.000e-01   1.213e+00   2.415e-01
-7.000e+01  -6.428e-01   1.148e+00   2.349e-01
-6.500e+01  -7.660e-01   1.068e+00   2.266e-01
-6.000e+01  -8.660e-01   9.750e-01   2.165e-01
-5.500e+01  -9.397e-01   8.723e-01   1.978e-01
-5.000e+01  -9.848e-01   7.629e-01   1.775e-01
-4.500e+01  -1.000e+00   6.500e-01   1.488e-01
-4.000e+01  -9.516e-01   5.282e-01   1.176e-01
-3.900e+01  -9.039e-01   5.026e-01   1.076e-01
-3.800e+01  -8.262e-01   4.671e-01   9.060e-02
-3.700e+01  -7.185e-01   4.345e-01   8.050e-02
-3.600e+01  -6.208e-01   3.989e-01   6.650e-02
-3.500e+01  -5.231e-01   3.634e-01   5.950e-02
-3.400e+01  -4.454e-01   3.278e-01   5.240e-02
-3.300e+01  -3.477e-01   3.013e-01   4.540e-02
-3.200e+01  -2.571e-01   2.729e-01   4.699e-02
-3.000e+01  -1.574e-01   2.332e-01   6.060e-02
-2.800e+01  -7.760e-02   2.034e-01   7.420e-02
-2.600e+01   1.150e-02   1.858e-01   8.749e-02
-2.400e+01   1.007e-01   1.681e-01   1.008e-01
-2.200e+01   1.962e-01   1.526e-01   1.133e-01
-2.000e+01   2.918e-01   1.370e-01   1.258e-01
-1.800e+01   3.932e-01   1.240e-01   1.370e-01
-1.600e+01   4.947e-01   1.109e-01   1.482e-01
-1.400e+01   6.004e-01   1.009e-01   1.571e-01
-1.200e+01   7.061e-01   9.080e-02   1.660e-01
-1.000e+01   7.880e-01   8.360e-02   1.677e-01
-8.000e+00   8.700e-01   7.650e-02   1.694e-01
-6.000e+00   8.358e-01   7.480e-02  -1.470e-01
-4.000e+00   8.162e-01   7.311e-02  -1.259e-01
-2.000e+00   6.603e-01   7.553e-02  -8.764e-02
0.000e+00   5.199e-01   7.795e-02  -5.062e-02
2.000e+00   2.636e-01   7.795e-02  -7.800e-04
4.000e+00  -9.060e-02   7.082e-02   6.962e-02
6.000e+00   1.656e-01   7.483e-02   1.974e-02
8.000e+00   4.475e-01   8.587e-02  -2.718e-02
1.000e+01   7.071e-01   9.990e-02  -6.712e-02
1.200e+01   9.540e-01   1.115e-01  -1.033e-01
1.400e+01   1.189e+00   1.207e-01  -1.369e-01
1.600e+01   1.418e+00   1.368e-01  -1.687e-01
1.800e+01   1.639e+00   1.500e-01  -1.989e-01
2.000e+01   1.822e+00   1.689e-01  -2.252e-01
2.200e+01   1.984e+00   2.066e-01  -2.509e-01
2.400e+01   2.099e+00   3.092e-01  -2.747e-01
2.600e+01   2.190e+00   4.344e-01  -2.966e-01
2.800e+01   2.254e+00   5.512e-01  -3.171e-01
3.000e+01   2.273e+00   6.732e-01  -3.335e-01
3.200e+01   2.274e+00   7.756e-01  -3.485e-01
3.300e+01   2.278e+00   8.209e-01  -3.466e-01
3.400e+01   2.266e+00   8.551e-01  -3.476e-01
3.500e+01   2.241e+00   8.862e-01  -3.487e-01
3.600e+01   2.233e+00   9.141e-01  -3.427e-01
3.700e+01   2.213e+00   9.390e-01  -3.366e-01
3.800e+01   2.182e+00   9.709e-01  -3.305e-01
3.900e+01   2.139e+00   9.996e-01  -3.244e-01
4.000e+01   2.095e+00   1.025e+00  -3.183e-01
4.500e+01   1.837e+00   1.142e+00  -3.003e-01
5.000e+01   1.516e+00   1.161e+00  -2.914e-01
5.500e+01   1.201e+00   1.166e+00  -2.824e-01
6.000e+01   9.660e-01   1.175e+00  -2.735e-01
6.500e+01   7.660e-01   1.178e+00  -2.636e-01
7.000e+01   6.428e-01   1.198e+00  -2.549e-01
7.500e+01   5.000e-01   1.213e+00  -2.515e-01
8.000e+01   3.420e-01   1.261e+00  -2.462e-01
8.500e+01   1.736e-01   1.290e+00  -2.490e-01
9.000e+01   0.000e+00   1.300e+00  -2.500e-01
9.500e+01  -1.736e-01   1.290e+00  -2.490e-01
1.000e+02  -3.420e-01   1.261e+00  -2.462e-01
1.050e+02  -5.000e-01   1.213e+00  -2.415e-01
1.100e+02  -6.428e-01   1.148e+00  -2.349e-01
1.150e+02  -7.660e-01   1.068e+00  -2.266e-01
1.200e+02  -8.660e-01   9.750e-01  -2.165e-01
1.250e+02  -9.397e-01   8.723e-01  -2.048e-01
1.300e+02  -9.848e-01   7.629e-01  -1.915e-01
1.350e+02  -1.000e+00   6.500e-01  -1.768e-01
1.400e+02  -9.848e-01   5.371e-01  -1.607e-01
1.450e+02  -9.397e-01   4.277e-01  -1.434e-01
1.500e+02  -8.660e-01   3.250e-01  -1.250e-01
1.550e+02  -7.660e-01   2.322e-01  -1.057e-01
1.600e+02  -6.428e-01   1.521e-01  -8.550e-02
1.650e+02  -5.000e-01   8.710e-02  -6.470e-02
1.700e+02  -3.420e-01   3.920e-02  -4.340e-02
1.750e+02  -1.736e-01   9.900e-03  -2.180e-02
1.800e+02   0.000e+00   0.000e+00   0.000e+00
--
Contents of "./AeroData/FFA_W3_480.dat":
 DEFAULT         = InterpOrd           
 1               = NonDimArea          
 0               = NumCoords           
 1               = NumTabs             
 0.75            = Re                  
 0               = UserProp            
 true            = InclUAdata          
 -0.38           = alpha0              
 30              = alpha1              
 -30             = alpha2              
 1               = eta_e               
 7.12499         = C_nalpha            
 2               = T_f0                
 2               = T_f0                
 7               = T_V0                
 7               = T_V0                
 1.6             = T_p                 
 1.6             = T_p                 
 9               = T_VL                
 9               = T_VL                
 Default         = b1                  
 Default         = b2                  
 0.5             = b5                  
 0.5             = b5                  
 Default         = A1                  
 Default         = A2                  
 Default         = A5                  
 18.269          = S1                  
 -11.324         = S2                  
 18.269          = S3                  
 -11.324         = S4                  
 3.5             = Cn1                 
 -0.8            = Cn2                 
 Default         = St_sh               
 0.0016          = Cd0                 
 -0.0328         = Cm0                 
 0               = k0                  
 0               = k1                  
 0               = k2                  
 0               = k3                  
 0               = k1_hat              
 Default         = x_cp_bar            
 DEFAULT         = UACutout            
 DEFAULT         = filtCutOff          
 105             = NumAlf              
-1.800e+02   0.000e+00   0.000e+00   0.000e+00
-1.750e+02   1.736e-01   9.900e-03   2.180e-02
-1.700e+02   3.420e-01   3.920e-02   4.340e-02
-1.650e+02   5.000e-01   8.710e-02   6.470e-02
-1.600e+02   6.428e-01   1.521e-01   8.550e-02
-1.550e+02   7.660e-01   2.322e-01   1.057e-01
-1.500e+02   8.660e-01   3.250e-01   1.250e-01
-1.450e+02   9.397e-01   4.277e-01   1.434e-01
-1.400e+02   9.848e-01   5.371e-01   1.607e-01
-1.350e+02   1.000e+00   6.500e-01   1.768e-01
-1.300e+02   9.848e-01   7.629e-01   1.915e-01
-1.250e+02   9.397e-01   8.723e-01   2.048e-01
-1.200e+02   8.660e-01   9.750e-01   2.165e-01
-1.150e+02   7.660e-01   1.068e+00   2.266e-01
-1.100e+02   6.428e-01   1.148e+00   2.349e-01
-1.050e+02   5.000e-01   1.213e+00   2.415e-01
-1.000e+02   3.420e-01   1.261e+00   2.462e-01
-9.500e+01   1.736e-01   1.290e+00   2.490e-01
-9.000e+01   0.000e+00   1.300e+00   2.500e-01
-8.500e+01  -1.736e-01   1.290e+00   2.490e-01
-8.000e+01  -3.420e-01   1.261e+00   2.462e-01
-7.500e+01  -5.000e-01   1.213e+00   2.415e-01
-7.000e+01  -6.428e-01   1.148e+00   2.349e-01
-6.500e+01  -7.660e-01   1.068e+00   2.266e-01
-6.000e+01  -8.660e-01   9.750e-01   2.165e-01
-5.500e+01  -9.397e-01   8.723e-01   1.978e-01
-5.000e+01  -9.848e-01   7.629e-01   1.775e-01
-4.500e+01  -1.000e+00   6.500e-01   1.558e-01
-4.000e+01  -9.816e-01   5.352e-01   1.246e-01
-3.900e+01  -9.539e-01   5.136e-01   1.106e-01
-3.800e+01  -9.262e-01   4.851e-01   9.660e-02
-3.700e+01  -8.885e-01   4.565e-01   8.250e-02
-3.600e+01  -8.508e-01   4.279e-01   6.550e-02
-3.500e+01  -8.231e-01   3.924e-01   5.850e-02
-3.400e+01  -7.854e-01   3.638e-01   4.840e-02
-3.300e+01  -7.477e-01   3.383e-01   3.840e-02
-3.200e+01  -7.011e-01   3.123e-01   3.050e-02
-3.000e+01  -6.208e-01   2.663e-01   2.000e-02
-2.800e+01  -5.406e-01   2.402e-01   9.400e-03
-2.600e+01  -4.694e-01   2.169e-01  -6.000e-04
-2.400e+01  -3.881e-01   1.936e-01  -1.060e-02
-2.200e+01  -3.161e-01   1.732e-01  -1.970e-02
-2.000e+01  -2.442e-01   1.529e-01  -2.890e-02
-1.800e+01  -1.641e-01   1.355e-01  -3.680e-02
-1.600e+01  -8.410e-02   1.180e-01  -4.480e-02
-1.400e+01   2.100e-03   1.035e-01  -5.100e-02
-1.200e+01   8.830e-02   8.900e-02  -5.720e-02
-1.000e+01   1.722e-01   7.730e-02  -6.040e-02
-8.000e+00   2.561e-01   6.560e-02  -6.360e-02
-6.000e+00   3.179e-01   5.630e-02  -6.050e-02
-4.000e+00   3.798e-01   4.700e-02  -5.740e-02
-2.000e+00   3.573e-01   4.050e-02  -3.510e-02
0.000e+00   3.348e-01   3.410e-02  -1.280e-02
2.000e+00   5.652e-01   3.160e-02  -4.940e-02
4.000e+00   8.769e-01   3.430e-02  -8.940e-02
6.000e+00   1.042e+00   4.510e-02  -1.117e-01
8.000e+00   9.487e-01   7.000e-02  -1.208e-01
1.000e+01   9.088e-01   8.860e-02  -1.376e-01
1.200e+01   9.761e-01   9.930e-02  -1.594e-01
1.400e+01   1.113e+00   1.070e-01  -1.823e-01
1.600e+01   1.306e+00   1.163e-01  -2.066e-01
1.800e+01   1.541e+00   1.317e-01  -2.315e-01
2.000e+01   1.805e+00   1.570e-01  -2.566e-01
2.200e+01   2.002e+00   2.757e-01  -2.806e-01
2.400e+01   2.122e+00   4.224e-01  -3.057e-01
2.600e+01   2.192e+00   5.610e-01  -3.294e-01
2.800e+01   2.229e+00   6.861e-01  -3.520e-01
3.000e+01   2.232e+00   7.958e-01  -3.710e-01
3.200e+01   2.219e+00   8.915e-01  -3.878e-01
3.300e+01   2.209e+00   9.229e-01  -3.845e-01
3.400e+01   2.193e+00   9.472e-01  -3.806e-01
3.500e+01   2.163e+00   9.664e-01  -3.747e-01
3.600e+01   2.131e+00   9.889e-01  -3.687e-01
3.700e+01   2.088e+00   1.007e+00  -3.626e-01
3.800e+01   2.043e+00   1.028e+00  -3.565e-01
3.900e+01   1.998e+00   1.052e+00  -3.504e-01
4.000e+01   1.942e+00   1.077e+00  -3.443e-01
4.500e+01   1.653e+00   1.170e+00  -3.233e-01
5.000e+01   1.302e+00   1.196e+00  -3.044e-01
5.500e+01   1.031e+00   1.196e+00  -2.954e-01
6.000e+01   8.660e-01   1.190e+00  -2.865e-01
6.500e+01   7.660e-01   1.193e+00  -2.766e-01
7.000e+01   6.428e-01   1.203e+00  -2.649e-01
7.500e+01   5.000e-01   1.213e+00  -2.515e-01
8.000e+01   3.420e-01   1.261e+00  -2.462e-01
8.500e+01   1.736e-01   1.290e+00  -2.490e-01
9.000e+01   0.000e+00   1.300e+00  -2.500e-01
9.500e+01  -1.736e-01   1.290e+00  -2.490e-01
1.000e+02  -3.420e-01   1.261e+00  -2.462e-01
1.050e+02  -5.000e-01   1.213e+00  -2.415e-01
1.100e+02  -6.428e-01   1.148e+00  -2.349e-01
1.150e+02  -7.660e-01   1.068e+00  -2.266e-01
1.200e+02  -8.660e-01   9.750e-01  -2.165e-01
1.250e+02  -9.397e-01   8.723e-01  -2.048e-01
1.300e+02  -9.848e-01   7.629e-01  -1.915e-01
1.350e+02  -1.000e+00   6.500e-01  -1.768e-01
1.400e+02  -9.848e-01   5.371e-01  -1.607e-01
1.450e+02  -9.397e-01   4.277e-01  -1.434e-01
1.500e+02  -8.660e-01   3.250e-01  -1.250e-01
1.550e+02  -7.660e-01   2.322e-01  -1.057e-01
1.600e+02  -6.428e-01   1.521e-01  -8.550e-02
1.650e+02  -5.000e-01   8.710e-02  -6.470e-02
1.700e+02  -3.420e-01   3.920e-02  -4.340e-02
1.750e+02  -1.736e-01   9.900e-03  -2.180e-02
1.800e+02   0.000e+00   0.000e+00   0.000e+00
--
Contents of "./AeroData/FFA_W3_360.dat":
 DEFAULT         = InterpOrd           
 1               = NonDimArea          
 0               = NumCoords           
 1               = NumTabs             
 0.75            = Re                  
 0               = UserProp            
 true            = InclUAdata          
 -0.38           = alpha0              
 30              = alpha1              
 -30             = alpha2              
 1               = eta_e               
 7.12499         = C_nalpha            
 2               = T_f0                
 2               = T_f0                
 7               = T_V0                
 7               = T_V0                
 1.6             = T_p                 
 1.6             = T_p                 
 9               = T_VL                
 9               = T_VL                
 Default         = b1                  
 Default         = b2                  
 0.5             = b5                  
 0.5             = b5                  
 Default         = A1                  
 Default         = A2                  
 Default         = A5                  
 18.269          = S1                  
 -11.324         = S2                  
 18.269          = S3                  
 -11.324         = S4                  
 3.5             = Cn1                 
 -0.8            = Cn2                 
 Default         = St_sh               
 0.0016          = Cd0                 
 -0.0328         = Cm0                 
 0               = k0                  
 0               = k1                  
 0               = k2                  
 0               = k3                  
 0               = k1_hat              
 Default         = x_cp_bar            
 DEFAULT         = UACutout            
 DEFAULT         = filtCutOff          
 105             = NumAlf              
-1.800e+02   0.000e+00   0.000e+00   0.000e+00
-1.750e+02   1.736e-01   9.900e-03   2.180e-02
-1.700e+02   3.420e-01   3.920e-02   4.340e-02
-1.650e+02   5.000e-01   8.710e-02   6.470e-02
-1.600e+02   6.428e-01   1.521e-01   8.550e-02
-1.550e+02   7.660e-01   2.322e-01   1.057e-01
-1.500e+02   8.660e-01   3.250e-01   1.250e-01
-1.450e+02   9.397e-01   4.277e-01   1.434e-01
-1.400e+02   9.848e-01   5.371e-01   1.607e-01
-1.350e+02   1.000e+00   6.500e-01   1.768e-01
-1.300e+02   9.848e-01   7.629e-01   1.915e-01
-1.250e+02   9.397e-01   8.723e-01   2.048e-01
-1.200e+02   8.660e-01   9.750e-01   2.165e-01
-1.150e+02   7.660e-01   1.068e+00   2.266e-01
-1.100e+02   6.428e-01   1.148e+00   2.349e-01
-1.050e+02   5.000e-01   1.213e+00   2.415e-01
-1.000e+02   3.420e-01   1.261e+00   2.462e-01
-9.500e+01   1.736e-01   1.290e+00   2.490e-01
-9.000e+01   0.000e+00   1.300e+00   2.500e-01
-8.500e+01  -1.736e-01   1.290e+00   2.490e-01
-8.000e+01  -3.420e-01   1.261e+00   2.462e-01
-7.500e+01  -5.000e-01   1.213e+00   2.415e-01
-7.000e+01  -6.428e-01   1.148e+00   2.349e-01
-6.500e+01  -7.660e-01   1.068e+00   2.266e-01
-6.000e+01  -8.660e-01   9.750e-01   2.165e-01
-5.500e+01  -9.397e-01   8.723e-01   2.048e-01
-5.000e+01  -9.848e-01   7.629e-01   1.915e-01
-4.500e+01  -1.000e+00   6.500e-01   1.768e-01
-4.000e+01  -9.716e-01   5.352e-01   1.416e-01
-3.900e+01  -9.639e-01   5.136e-01   1.346e-01
-3.800e+01  -9.462e-01   4.851e-01   1.276e-01
-3.700e+01  -9.285e-01   4.635e-01   1.205e-01
-3.600e+01  -9.108e-01   4.349e-01   1.135e-01
-3.500e+01  -8.931e-01   4.064e-01   9.650e-02
-3.400e+01  -8.854e-01   3.778e-01   7.940e-02
-3.300e+01  -8.677e-01   3.523e-01   6.240e-02
-3.200e+01  -8.564e-01   3.315e-01   4.470e-02
-3.000e+01  -8.378e-01   2.777e-01   3.270e-02
-2.800e+01  -8.191e-01   2.338e-01   2.080e-02
-2.600e+01  -7.924e-01   2.045e-01   1.020e-02
-2.400e+01  -7.756e-01   1.751e-01  -4.000e-04
-2.200e+01  -7.441e-01   1.513e-01  -8.900e-03
-2.000e+01  -7.126e-01   1.274e-01  -1.740e-02
-1.800e+01  -6.678e-01   1.085e-01  -2.290e-02
-1.600e+01  -6.231e-01   8.960e-02  -2.850e-02
-1.400e+01  -5.742e-01   7.480e-02  -3.000e-02
-1.200e+01  -5.252e-01   6.000e-02  -3.140e-02
-1.000e+01  -4.827e-01   4.850e-02  -2.790e-02
-8.000e+00  -4.402e-01   3.700e-02  -2.440e-02
-6.000e+00  -2.983e-01   2.940e-02  -3.590e-02
-4.000e+00  -1.564e-01   2.190e-02  -4.740e-02
-2.000e+00   1.744e-01   2.030e-02  -7.820e-02
0.000e+00   5.053e-01   1.870e-02  -1.090e-01
2.000e+00   8.241e-01   1.880e-02  -1.329e-01
4.000e+00   1.121e+00   1.960e-02  -1.510e-01
6.000e+00   1.390e+00   2.130e-02  -1.630e-01
8.000e+00   1.625e+00   2.400e-02  -1.691e-01
1.000e+01   1.811e+00   2.790e-02  -1.683e-01
1.200e+01   1.859e+00   3.650e-02  -1.585e-01
1.400e+01   1.816e+00   7.600e-02  -1.558e-01
1.600e+01   1.779e+00   1.165e-01  -1.670e-01
1.800e+01   1.756e+00   1.571e-01  -1.809e-01
2.000e+01   1.763e+00   2.063e-01  -1.960e-01
2.200e+01   1.800e+00   3.057e-01  -2.143e-01
2.400e+01   1.849e+00   4.153e-01  -2.365e-01
2.600e+01   1.877e+00   5.163e-01  -2.588e-01
2.800e+01   1.883e+00   6.069e-01  -2.797e-01
3.000e+01   1.869e+00   6.892e-01  -2.983e-01
3.200e+01   1.844e+00   7.625e-01  -3.147e-01
3.300e+01   1.835e+00   7.954e-01  -3.166e-01
3.400e+01   1.830e+00   8.232e-01  -3.106e-01
3.500e+01   1.814e+00   8.446e-01  -3.047e-01
3.600e+01   1.785e+00   8.684e-01  -2.987e-01
3.700e+01   1.767e+00   8.912e-01  -2.926e-01
3.800e+01   1.727e+00   9.066e-01  -2.865e-01
3.900e+01   1.686e+00   9.255e-01  -2.844e-01
4.000e+01   1.646e+00   9.385e-01  -2.803e-01
4.500e+01   1.447e+00   1.029e+00  -2.633e-01
5.000e+01   1.136e+00   1.071e+00  -2.544e-01
5.500e+01   9.808e-01   1.086e+00  -2.454e-01
6.000e+01   8.660e-01   1.100e+00  -2.365e-01
6.500e+01   7.660e-01   1.128e+00  -2.366e-01
7.000e+01   6.428e-01   1.163e+00  -2.389e-01
7.500e+01   5.000e-01   1.213e+00  -2.415e-01
8.000e+01   3.420e-01   1.261e+00  -2.462e-01
8.500e+01   1.736e-01   1.290e+00  -2.490e-01
9.000e+01   0.000e+00   1.300e+00  -2.500e-01
9.500e+01  -1.736e-01   1.290e+00  -2.490e-01
1.000e+02  -3.420e-01   1.261e+00  -2.462e-01
1.050e+02  -5.000e-01   1.213e+00  -2.415e-01
1.100e+02  -6.428e-01   1.148e+00  -2.349e-01
1.150e+02  -7.660e-01   1.068e+00  -2.266e-01
1.200e+02  -8.660e-01   9.750e-01  -2.165e-01
1.250e+02  -9.397e-01   8.723e-01  -2.048e-01
1.300e+02  -9.848e-01   7.629e-01  -1.915e-01
1.350e+02  -1.000e+00   6.500e-01  -1.768e-01
1.400e+02  -9.848e-01   5.371e-01  -1.607e-01
1.450e+02  -9.397e-01   4.277e-01  -1.434e-01
1.500e+02  -8.660e-01   3.250e-01  -1.250e-01
1.550e+02  -7.660e-01   2.322e-01  -1.057e-01
1.600e+02  -6.428e-01   1.521e-01  -8.550e-02
1.650e+02  -5.000e-01   8.710e-02  -6.470e-02
1.700e+02  -3.420e-01   3.920e-02  -4.340e-02
1.750e+02  -1.736e-01   9.900e-03  -2.180e-02
1.800e+02   0.000e+00   0.000e+00   0.000e+00
--
Contents of "./AeroData/FFA_W3_301.dat":
 DEFAULT         = InterpOrd           
 1               = NonDimArea          
 0               = NumCoords           
 1               = NumTabs             
 0.75            = Re                  
 0               = UserProp            
 true            = InclUAdata          
 -0.38           = alpha0              
 30              = alpha1              
 -30             = alpha2              
 1               = eta_e               
 7.12499         = C_nalpha            
 2               = T_f0                
 2               = T_f0                
 7               = T_V0                
 7               = T_V0                
 1.6             = T_p                 
 1.6             = T_p                 
 9               = T_VL                
 9               = T_VL                
 Default         = b1                  
 Default         = b2                  
 0.5             = b5                  
 0.5             = b5                  
 Default         = A1                  
 Default         = A2                  
 Default         = A5                  
 18.269          = S1                  
 -11.324         = S2                  
 18.269          = S3                  
 -11.324         = S4                  
 3.5             = Cn1                 
 -0.8            = Cn2                 
 Default         = St_sh               
 0.0016          = Cd0                 
 -0.0328         = Cm0                 
 0               = k0                  
 0               = k1                  
 0               = k2                  
 0               = k3                  
 0               = k1_hat              
 Default         = x_cp_bar            
 DEFAULT         = UACutout            
 DEFAULT         = filtCutOff          
 105             = NumAlf              
-1.800e+02   0.000e+00   0.000e+00   0.000e+00
-1.750e+02   1.736e-01   9.900e-03   2.180e-02
-1.700e+02   3.420e-01   3.920e-02   4.340e-02
-1.650e+02   5.000e-01   8.710e-02   6.470e-02
-1.600e+02   6.428e-01   1.521e-01   8.550e-02
-1.550e+02   7.660e-01   2.322e-01   1.057e-01
-1.500e+02   8.660e-01   3.250e-01   1.250e-01
-1.450e+02   9.397e-01   4.277e-01   1.434e-01
-1.400e+02   9.848e-01   5.371e-01   1.607e-01
-1.350e+02   1.000e+00   6.500e-01   1.768e-01
-1.300e+02   9.848e-01   7.629e-01   1.915e-01
-1.250e+02   9.397e-01   8.723e-01   2.048e-01
-1.200e+02   8.660e-01   9.750e-01   2.165e-01
-1.150e+02   7.660e-01   1.068e+00   2.266e-01
-1.100e+02   6.428e-01   1.148e+00   2.349e-01
-1.050e+02   5.000e-01   1.213e+00   2.415e-01
-1.000e+02   3.420e-01   1.261e+00   2.462e-01
-9.500e+01   1.736e-01   1.290e+00   2.490e-01
-9.000e+01   0.000e+00   1.300e+00   2.500e-01
-8.500e+01  -1.736e-01   1.290e+00   2.490e-01
-8.000e+01  -3.420e-01   1.261e+00   2.462e-01
-7.500e+01  -5.000e-01   1.213e+00   2.415e-01
-7.000e+01  -6.428e-01   1.148e+00   2.349e-01
-6.500e+01  -7.660e-01   1.068e+00   2.266e-01
-6.000e+01  -8.660e-01   9.750e-01   2.165e-01
-5.500e+01  -9.397e-01   8.723e-01   2.048e-01
-5.000e+01  -9.848e-01   7.629e-01   1.915e-01
-4.500e+01  -1.000e+00   6.500e-01   1.768e-01
-4.000e+01  -1.022e+00   5.352e-01   1.416e-01
-3.900e+01  -1.024e+00   5.066e-01   1.346e-01
-3.800e+01  -1.016e+00   4.851e-01   1.276e-01
-3.700e+01  -1.018e+00   4.565e-01   1.205e-01
-3.600e+01  -1.011e+00   4.279e-01   1.135e-01
-3.500e+01  -1.003e+00   3.994e-01   9.650e-02
-3.400e+01  -9.954e-01   3.708e-01   7.940e-02
-3.300e+01  -9.877e-01   3.353e-01   6.240e-02
-3.200e+01  -9.835e-01   3.097e-01   5.150e-02
-3.000e+01  -9.703e-01   2.663e-01   3.890e-02
-2.800e+01  -9.672e-01   2.229e-01   2.630e-02
-2.600e+01  -9.441e-01   1.941e-01   1.540e-02
-2.400e+01  -9.310e-01   1.654e-01   4.500e-03
-2.200e+01  -9.047e-01   1.417e-01  -3.900e-03
-2.000e+01  -8.784e-01   1.181e-01  -1.230e-02
-1.800e+01  -8.459e-01   9.860e-02  -1.750e-02
-1.600e+01  -8.134e-01   7.920e-02  -2.270e-02
-1.400e+01  -7.728e-01   6.430e-02  -2.350e-02
-1.200e+01  -7.322e-01   4.950e-02  -2.440e-02
-1.000e+01  -6.935e-01   3.810e-02  -2.270e-02
-8.000e+00  -6.547e-01   2.670e-02  -2.100e-02
-6.000e+00  -4.507e-01   2.040e-02  -3.890e-02
-4.000e+00  -2.467e-01   1.400e-02  -5.690e-02
-2.000e+00   2.950e-02   1.290e-02  -7.170e-02
0.000e+00   3.056e-01   1.180e-02  -8.650e-02
2.000e+00   5.670e-01   1.190e-02  -9.540e-02
4.000e+00   8.199e-01   1.250e-02  -1.024e-01
6.000e+00   1.061e+00   1.360e-02  -1.071e-01
8.000e+00   1.287e+00   1.520e-02  -1.094e-01
1.000e+01   1.484e+00   1.800e-02  -1.080e-01
1.200e+01   1.639e+00   2.240e-02  -1.026e-01
1.400e+01   1.733e+00   3.030e-02  -9.524e-02
1.600e+01   1.714e+00   5.390e-02  -9.104e-02
1.800e+01   1.683e+00   9.540e-02  -9.794e-02
2.000e+01   1.657e+00   1.435e-01  -1.103e-01
2.200e+01   1.644e+00   2.280e-01  -1.300e-01
2.400e+01   1.633e+00   3.148e-01  -1.533e-01
2.600e+01   1.633e+00   3.926e-01  -1.760e-01
2.800e+01   1.617e+00   4.623e-01  -1.966e-01
3.000e+01   1.597e+00   5.266e-01  -2.149e-01
3.200e+01   1.571e+00   5.855e-01  -2.313e-01
3.300e+01   1.576e+00   6.215e-01  -2.366e-01
3.400e+01   1.557e+00   6.562e-01  -2.406e-01
3.500e+01   1.548e+00   6.897e-01  -2.447e-01
3.600e+01   1.527e+00   7.148e-01  -2.487e-01
3.700e+01   1.526e+00   7.464e-01  -2.496e-01
3.800e+01   1.514e+00   7.762e-01  -2.455e-01
3.900e+01   1.492e+00   7.982e-01  -2.444e-01
4.000e+01   1.460e+00   8.197e-01  -2.423e-01
4.500e+01   1.295e+00   9.122e-01  -2.373e-01
5.000e+01   1.126e+00   9.665e-01  -2.354e-01
5.500e+01   9.808e-01   9.957e-01  -2.324e-01
6.000e+01   8.660e-01   1.035e+00  -2.335e-01
6.500e+01   7.660e-01   1.083e+00  -2.336e-01
7.000e+01   6.428e-01   1.148e+00  -2.349e-01
7.500e+01   5.000e-01   1.213e+00  -2.415e-01
8.000e+01   3.420e-01   1.261e+00  -2.462e-01
8.500e+01   1.736e-01   1.290e+00  -2.490e-01
9.000e+01   0.000e+00   1.300e+00  -2.500e-01
9.500e+01  -1.736e-01   1.290e+00  -2.490e-01
1.000e+02  -3.420e-01   1.261e+00  -2.462e-01
1.050e+02  -5.000e-01   1.213e+00  -2.415e-01
1.100e+02  -6.428e-01   1.148e+00  -2.349e-01
1.150e+02  -7.660e-01   1.068e+00  -2.266e-01
1.200e+02  -8.660e-01   9.750e-01  -2.165e-01
1.250e+02  -9.397e-01   8.723e-01  -2.048e-01
1.300e+02  -9.848e-01   7.629e-01  -1.915e-01
1.350e+02  -1.000e+00   6.500e-01  -1.768e-01
1.400e+02  -9.848e-01   5.371e-01  -1.607e-01
1.450e+02  -9.397e-01   4.277e-01  -1.434e-01
1.500e+02  -8.660e-01   3.250e-01  -1.250e-01
1.550e+02  -7.660e-01   2.322e-01  -1.057e-01
1.600e+02  -6.428e-01   1.521e-01  -8.550e-02
1.650e+02  -5.000e-01   8.710e-02  -6.470e-02
1.700e+02  -3.420e-01   3.920e-02  -4.340e-02
1.750e+02  -1.736e-01   9.900e-03  -2.180e-02
1.800e+02   0.000e+00   0.000e+00   0.000e+00
--
Contents of "./AeroData/FFA_W3_241.dat":
 DEFAULT         = InterpOrd           
 1               = NonDimArea          
 0               = NumCoords           
 1               = NumTabs             
 0.75            = Re                  
 0               = UserProp            
 true            = InclUAdata          
 -0.38           = alpha0              
 30              = alpha1              
 -30             = alpha2              
 1               = eta_e               
 7.12499         = C_nalpha            
 2               = T_f0                
 2               = T_f0                
 7               = T_V0                
 7               = T_V0                
 1.6             = T_p                 
 1.6             = T_p                 
 9               = T_VL                
 9               = T_VL                
 Default         = b1                  
 Default         = b2                  
 0.5             = b5                  
 0.5             = b5                  
 Default         = A1                  
 Default         = A2                  
 Default         = A5                  
 18.269          = S1                  
 -11.324         = S2                  
 18.269          = S3                  
 -11.324         = S4                  
 3.5             = Cn1                 
 -0.8            = Cn2                 
 Default         = St_sh               
 0.0016          = Cd0                 
 -0.0328         = Cm0                 
 0               = k0                  
 0               = k1                  
 0               = k2                  
 0               = k3                  
 0               = k1_hat              
 Default         = x_cp_bar            
 DEFAULT         = UACutout            
 DEFAULT         = filtCutOff          
 105             = NumAlf              
-1.800e+02   0.000e+00   0.000e+00   0.000e+00
-1.750e+02   1.736e-01   1.140e-02   2.180e-02
-1.700e+02   3.420e-01   4.520e-02   4.340e-02
-1.650e+02   5.000e-01   1.005e-01   6.470e-02
-1.600e+02   6.428e-01   1.755e-01   8.550e-02
-1.550e+02   7.660e-01   2.679e-01   1.057e-01
-1.500e+02   8.660e-01   3.750e-01   1.250e-01
-1.450e+02   9.397e-01   4.935e-01   1.434e-01
-1.400e+02   9.848e-01   6.197e-01   1.607e-01
-1.350e+02   1.000e+00   7.500e-01   1.768e-01
-1.300e+02   9.848e-01   8.803e-01   1.915e-01
-1.250e+02   9.397e-01   1.006e+00   2.048e-01
-1.200e+02   8.660e-01   1.125e+00   2.165e-01
-1.150e+02   7.660e-01   1.232e+00   2.266e-01
-1.100e+02   6.428e-01   1.325e+00   2.349e-01
-1.050e+02   5.000e-01   1.399e+00   2.415e-01
-1.000e+02   3.420e-01   1.455e+00   2.462e-01
-9.500e+01   1.736e-01   1.489e+00   2.490e-01
-9.000e+01   0.000e+00   1.500e+00   2.500e-01
-8.500e+01  -1.736e-01   1.489e+00   2.490e-01
-8.000e+01  -3.420e-01   1.455e+00   2.462e-01
-7.500e+01  -5.000e-01   1.399e+00   2.415e-01
-7.000e+01  -6.428e-01   1.325e+00   2.349e-01
-6.500e+01  -7.660e-01   1.232e+00   2.266e-01
-6.000e+01  -8.660e-01   1.125e+00   2.165e-01
-5.500e+01  -9.397e-01   1.006e+00   2.048e-01
-5.000e+01  -9.848e-01   8.603e-01   1.915e-01
-4.500e+01  -1.012e+00   7.120e-01   1.708e-01
-4.000e+01  -1.038e+00   5.475e-01   1.416e-01
-3.900e+01  -1.042e+00   5.165e-01   1.346e-01
-3.800e+01  -1.046e+00   4.816e-01   1.276e-01
-3.700e+01  -1.052e+00   4.487e-01   1.185e-01
-3.600e+01  -1.057e+00   4.177e-01   1.095e-01
-3.500e+01  -1.061e+00   3.848e-01   1.005e-01
-3.400e+01  -1.065e+00   3.558e-01   8.940e-02
-3.300e+01  -1.072e+00   3.289e-01   8.240e-02
-3.200e+01  -1.077e+00   3.031e-01   6.780e-02
-3.000e+01  -1.089e+00   2.560e-01   5.080e-02
-2.800e+01  -1.099e+00   2.090e-01   3.370e-02
-2.600e+01  -1.117e+00   1.756e-01   2.060e-02
-2.400e+01  -1.128e+00   1.423e-01   7.500e-03
-2.200e+01  -1.121e+00   1.183e-01  -8.000e-04
-2.000e+01  -1.115e+00   9.430e-02  -9.100e-03
-1.800e+01  -1.092e+00   7.650e-02  -1.230e-02
-1.600e+01  -1.069e+00   5.870e-02  -1.560e-02
-1.400e+01  -1.038e+00   4.540e-02  -1.560e-02
-1.200e+01  -1.007e+00   3.210e-02  -1.550e-02
-1.000e+01  -8.479e-01   2.300e-02  -3.180e-02
-8.000e+00  -6.892e-01   1.380e-02  -4.800e-02
-6.000e+00  -4.278e-01   1.180e-02  -6.110e-02
-4.000e+00  -1.665e-01   9.800e-03  -7.420e-02
-2.000e+00   8.630e-02   9.500e-03  -8.110e-02
0.000e+00   3.391e-01   9.200e-03  -8.800e-02
2.000e+00   5.867e-01   9.400e-03  -9.330e-02
4.000e+00   8.301e-01   9.900e-03  -9.770e-02
6.000e+00   1.066e+00   1.090e-02  -1.008e-01
8.000e+00   1.291e+00   1.240e-02  -1.026e-01
1.000e+01   1.501e+00   1.440e-02  -1.024e-01
1.200e+01   1.689e+00   1.730e-02  -9.980e-02
1.400e+01   1.810e+00   2.260e-02  -9.410e-02
1.600e+01   1.814e+00   3.540e-02  -8.740e-02
1.800e+01   1.754e+00   6.470e-02  -8.500e-02
2.000e+01   1.607e+00   1.035e-01  -9.130e-02
2.200e+01   1.526e+00   1.437e-01  -1.026e-01
2.400e+01   1.443e+00   1.841e-01  -1.140e-01
2.600e+01   1.383e+00   2.290e-01  -1.282e-01
2.800e+01   1.322e+00   2.738e-01  -1.423e-01
3.000e+01   1.258e+00   3.278e-01  -1.582e-01
3.200e+01   1.194e+00   3.816e-01  -1.739e-01
3.300e+01   1.173e+00   4.209e-01  -1.790e-01
3.400e+01   1.157e+00   4.504e-01  -1.831e-01
3.500e+01   1.138e+00   4.815e-01  -1.873e-01
3.600e+01   1.125e+00   5.105e-01  -1.914e-01
3.700e+01   1.118e+00   5.450e-01  -1.953e-01
3.800e+01   1.102e+00   5.737e-01  -1.993e-01
3.900e+01   1.089e+00   5.999e-01  -2.032e-01
4.000e+01   1.075e+00   6.280e-01  -2.071e-01
4.500e+01   1.018e+00   7.578e-01  -2.161e-01
5.000e+01   9.716e-01   8.820e-01  -2.184e-01
5.500e+01   9.268e-01   1.010e+00  -2.214e-01
6.000e+01   8.660e-01   1.125e+00  -2.255e-01
6.500e+01   7.660e-01   1.232e+00  -2.306e-01
7.000e+01   6.428e-01   1.325e+00  -2.349e-01
7.500e+01   5.000e-01   1.399e+00  -2.415e-01
8.000e+01   3.420e-01   1.455e+00  -2.462e-01
8.500e+01   1.736e-01   1.489e+00  -2.490e-01
9.000e+01   0.000e+00   1.500e+00  -2.500e-01
9.500e+01  -1.736e-01   1.489e+00  -2.490e-01
1.000e+02  -3.420e-01   1.455e+00  -2.462e-01
1.050e+02  -5.000e-01   1.399e+00  -2.415e-01
1.100e+02  -6.428e-01   1.325e+00  -2.349e-01
1.150e+02  -7.660e-01   1.232e+00  -2.266e-01
1.200e+02  -8.660e-01   1.125e+00  -2.165e-01
1.250e+02  -9.397e-01   1.006e+00  -2.048e-01
1.300e+02  -9.848e-01   8.803e-01  -1.915e-01
1.350e+02  -1.000e+00   7.500e-01  -1.768e-01
1.400e+02  -9.848e-01   6.197e-01  -1.607e-01
1.450e+02  -9.397e-01   4.935e-01  -1.434e-01
1.500e+02  -8.660e-01   3.750e-01  -1.250e-01
1.550e+02  -7.660e-01   2.679e-01  -1.057e-01
1.600e+02  -6.428e-01   1.755e-01  -8.550e-02
1.650e+02  -5.000e-01   1.005e-01  -6.470e-02
1.700e+02  -3.420e-01   4.520e-02  -4.340e-02
1.750e+02  -1.736e-01   1.140e-02  -2.180e-02
1.800e+02   0.000e+00   0.000e+00   0.000e+00
