
This summary information was generated by AeroDyn on 30-Nov-2020 at 07:49:45.

======  General Options  ============================================================================
            1  WakeMod        - Type of wake/induction model: Blade-Element/Momentum Theory
            1  AFAeroMod      - Type of blade airfoil aerodynamics model: steady
            0  TwrPotent      - Type tower influence on wind based on potential flow around the tower: none
            F  TwrShadow      - Calculate tower influence on wind based on downstream tower shadow? No
            F  TwrAero        - Calculate tower aerodynamic loads? No
======  Blade-Element/Momentum Theory Options  ======================================================
            1  SkewMod        - Type of skewed-wake correction model: uncoupled
            F  TipLoss        - Use the Prandtl tip-loss model? No
            F  HubLoss        - Use the Prandtl hub-loss model? No
            T  TanInd         - Include tangential induction in BEMT calculations? Yes
            T  AIDrag         - Include the drag term in the axial-induction calculation? Yes
            T  AIDrag         - Include the drag term in the tangential-induction calculation? Yes
   1.0000E-05  IndToler       - Convergence tolerance for BEM induction factors (radians)
======  Outputs  ====================================================================================
            9  NBlOuts        - Number of blade nodes selected for output
           37  NumBlNds       - Number of blade nodes in the analysis
               Blade nodes selected for output:  Output node  Analysis node
                                                 -----------  -------------
                                                           1              1
                                                           2              2
                                                           3              3
                                                           4              5
                                                           5              4
                                                           6              5
                                                           7              6
                                                           8              7
                                                           9              8
            0  NTwOuts        - Number of tower nodes selected for output
               Requested Output Channels:
               Col   Parameter  Units
               ----  ---------  -----
                  0  Time       (s)       
                  1  RtAeroCp   (-)       
                  2  RtAeroCq   (-)       
                  3  RtAeroCt   (-)       
